!-Generator IDFEditor 1.37c
!-Option OriginalOrderTop UseSpecialFormat

!-NOTE: All comments with '!-' are ignored by the IDFEditor and are generated automatically.
!-      Use '!' comments if they need to be retained when using the IDFEditor.

ZoneInfiltration:EffectiveLeakageArea,
    Roof Leakage,            !- Name
    Roof,                    !- Zone Name
    ALWAYS_ON,               !- Schedule Name
    93.571,                  !- Effective Air Leakage Area
    0.00029,                 !- Stack Coefficient
    0.000231;                !- Wind Coefficient

ZoneInfiltration:EffectiveLeakageArea,
    House Leakage,           !- Name
    House,                   !- Zone Name
    ALWAYS_ON,               !- Schedule Name
    93.571,                  !- Effective Air Leakage Area
    0.00029,                 !- Stack Coefficient
    0.000231;                !- Wind Coefficient

Schedule:Compact,
    Tree Shade,              !- Name
    Fraction,                !- Schedule Type Limits Name
    Through: 3/31,           !- Field 1
    For: AllDays,            !- Field 2
    Until: 24:00, 0.866,     !- Field 4
    Through: 10/31,          !- Field 5
    For: AllDays,            !- Field 6
    Until: 24:00, 0.447,     !- Field 8
    Through: 12/31,          !- Field 9
    For: AllDays,            !- Field 10
    Until: 24:00, 0.866;     !- Field 12

Output:Table:SummaryReports,
    DemandEndUseComponentsSummary,  !- Report 1 Name
    ComponentSizingSummary;  !- Report 2 Name

Construction,
    Attic Floor R-38,        !- Name
    I05 154mm batt insulation,  !- Outside Layer
    I05 154mm batt insulation;  !- Layer 2

Output:Variable,*,Surface Outside Temperature,Hourly;

Material:NoMass,
    Vaporseal - plastic film,!- Name
    Rough,                   !- Roughness
    0.002;                   !- Thermal Resistance {m2-K/W}

WindowMaterial:Glazing,
    CLEAR 6MM,               !- Name
    SpectralAverage,         !- Optical Data Type
    ,                        !- Window Glass Spectral Data Set Name
    0.006,                   !- Thickness {m}
    0.775,                   !- Solar Transmittance at Normal Incidence
    0.071,                   !- Front Side Solar Reflectance at Normal Incidence
    0.071,                   !- Back Side Solar Reflectance at Normal Incidence
    0.881,                   !- Visible Transmittance at Normal Incidence
    0.080,                   !- Front Side Visible Reflectance at Normal Incidence
    0.080,                   !- Back Side Visible Reflectance at Normal Incidence
    0.0,                     !- Infrared Transmittance at Normal Incidence
    0.84,                    !- Front Side Infrared Hemispherical Emissivity
    0.84,                    !- Back Side Infrared Hemispherical Emissivity
    0.9;                     !- Conductivity {W/m-K}

WindowMaterial:Glazing,
    LoE CLEAR 3MM Rev,       !- Name
    SpectralAverage,         !- Optical Data Type
    ,                        !- Window Glass Spectral Data Set Name
    0.003,                   !- Thickness {m}
    0.630,                   !- Solar Transmittance at Normal Incidence
    0.220,                   !- Front Side Solar Reflectance at Normal Incidence
    0.190,                   !- Back Side Solar Reflectance at Normal Incidence
    0.850,                   !- Visible Transmittance at Normal Incidence
    0.079,                   !- Front Side Visible Reflectance at Normal Incidence
    0.056,                   !- Back Side Visible Reflectance at Normal Incidence
    0.0,                     !- Infrared Transmittance at Normal Incidence
    0.10,                    !- Front Side Infrared Hemispherical Emissivity
    0.84,                    !- Back Side Infrared Hemispherical Emissivity
    0.9;                     !- Conductivity {W/m-K}

Material:AirGap,
    F04 Wall air space resistance,  !- Name
    0.15;                    !- Thermal Resistance {m2-K/W}

Material:AirGap,
    F05 Ceiling air space resistance,  !- Name
    0.18;                    !- Thermal Resistance {m2-K/W}

Construction,
    Single Pane Window 3mm,  !- Name
    Clear 3mm;               !- Outside Layer

Construction,
    Single Pane Window 6mm,  !- Name
    CLEAR 6MM;               !- Outside Layer

Construction,
    Dbl LoE (e2=.4) Clr 3mm/6mm Air,  !- Name
    PYR A CLEAR 3MM,         !- Outside Layer
    AIR 6MM,                 !- Layer 2
    Clear 3mm;               !- Layer 3

Construction,
    Trp LoE (e5=.1) Clr 3mm/13mm Air,  !- Name
    Clear 3mm,               !- Outside Layer
    Air 13mm,                !- Layer 2
    Clear 3mm,               !- Layer 3
    Air 13mm,                !- Layer 4
    LoE CLEAR 3MM Rev;       !- Layer 5

Construction,
    Trp LoE (e5=.1) Clr 3mm/13mm Arg,  !- Name
    Clear 3mm,               !- Outside Layer
    ARGON 13MM,              !- Layer 2
    Clear 3mm,               !- Layer 3
    ARGON 13MM,              !- Layer 4
    LoE CLEAR 3MM Rev;       !- Layer 5

WindowMaterial:Gas,
    AIR 6MM,                 !- Name
    Air,                     !- Gas Type
    0.0063;                  !- Thickness {m}

WindowMaterial:Gas,
    AIR 3MM,                 !- Name
    Air,                     !- Gas Type
    0.0032;                  !- Thickness {m}

WindowMaterial:Gas,
    ARGON 13MM,              !- Name
    Argon,                   !- Gas Type
    0.0127;                  !- Thickness {m}

WindowMaterial:Glazing,
    PYR A CLEAR 3MM,         !- Name
    SpectralAverage,         !- Optical Data Type
    ,                        !- Window Glass Spectral Data Set Name
    0.003,                   !- Thickness {m}
    0.750,                   !- Solar Transmittance at Normal Incidence
    0.100,                   !- Front Side Solar Reflectance at Normal Incidence
    0.100,                   !- Back Side Solar Reflectance at Normal Incidence
    0.850,                   !- Visible Transmittance at Normal Incidence
    0.120,                   !- Front Side Visible Reflectance at Normal Incidence
    0.120,                   !- Back Side Visible Reflectance at Normal Incidence
    0.0,                     !- Infrared Transmittance at Normal Incidence
    0.84,                    !- Front Side Infrared Hemispherical Emissivity
    0.40,                    !- Back Side Infrared Hemispherical Emissivity
    0.9;                     !- Conductivity {W/m-K}

WindowMaterial:Glazing,
    LoE CLEAR 3MM,           !- Name
    SpectralAverage,         !- Optical Data Type
    ,                        !- Window Glass Spectral Data Set Name
    0.003,                   !- Thickness {m}
    0.630,                   !- Solar Transmittance at Normal Incidence
    0.190,                   !- Front Side Solar Reflectance at Normal Incidence
    0.220,                   !- Back Side Solar Reflectance at Normal Incidence
    0.850,                   !- Visible Transmittance at Normal Incidence
    0.056,                   !- Front Side Visible Reflectance at Normal Incidence
    0.079,                   !- Back Side Visible Reflectance at Normal Incidence
    0.0,                     !- Infrared Transmittance at Normal Incidence
    0.84,                    !- Front Side Infrared Hemispherical Emissivity
    0.10,                    !- Back Side Infrared Hemispherical Emissivity
    0.9;                     !- Conductivity {W/m-K}

Material,
    F12 Asphalt shingles,    !- Name
    VeryRough,               !- Roughness
    0.0032,                  !- Thickness {m}
    0.04,                    !- Conductivity {W/m-K}
    1120,                    !- Density {kg/m3}
    1260;                    !- Specific Heat {J/kg-K}

Material,
    F13 Built-up roofing,    !- Name
    Rough,                   !- Roughness
    0.0095,                  !- Thickness {m}
    0.16,                    !- Conductivity {W/m-K}
    1120,                    !- Density {kg/m3}
    1460;                    !- Specific Heat {J/kg-K}

Material:NoMass,
    Vaporpermeable felt,     !- Name
    Rough,                   !- Roughness
    0.011;                   !- Thermal Resistance {m2-K/W}

Material,
    Sheathing - regular density - 12.7mm,  !- Name
    Smooth,                  !- Roughness
    0.0127,                  !- Thickness {m}
    0.055,                   !- Conductivity {W/m-K}
    290,                     !- Density {kg/m3}
    1300;                    !- Specific Heat {J/kg-K}

Construction,
    Residential Roof,        !- Name
    F12 Asphalt shingles,    !- Outside Layer
    Vaporpermeable felt,     !- Layer 2
    Sheathing - regular density - 12.7mm;  !- Layer 3

Construction,
    Residential Interior Ceiling,  !- Name
    Vaporseal - plastic film,!- Outside Layer
    F05 Ceiling air space resistance,  !- Layer 2
    G01a 19mm gypsum board;  !- Layer 3

Construction,
    Attic Floor,             !- Name
    I05 154mm batt insulation;  !- Outside Layer

Material,
    I05 154mm batt insulation,  !- Name
    VeryRough,               !- Roughness
    0.1544,                  !- Thickness {m}
    0.05,                    !- Conductivity {W/m-K}
    19,                      !- Density {kg/m3}
    960;                     !- Specific Heat {J/kg-K}

Material,
    Composite 2x4 Wood Stud R11 #1,  !- Name
    Smooth,                  !- Roughness
    0.019,                   !- Thickness {m}
    0.186,                   !- Conductivity {W/m-K}
    640.0,                   !- Density {kg/m3}
    1048,                    !- Specific Heat {J/kg-K}
    0.9,                     !- Thermal Absorptance
    0.7,                     !- Solar Absorptance
    0.7;                     !- Visible Absorptance

Material,
    Composite 2x4 Wood Stud R11 #2,  !- Name
    Smooth,                  !- Roughness
    0.083,                   !- Thickness {m}
    0.049,                   !- Conductivity {W/m-K}
    119.63,                  !- Density {kg/m3}
    1048,                    !- Specific Heat {J/kg-K}
    0.9,                     !- Thermal Absorptance
    0.7,                     !- Solar Absorptance
    0.7;                     !- Visible Absorptance

Material,
    Composite 2x4 Wood Stud R11 #3,  !- Name
    Smooth,                  !- Roughness
    0.025,                   !- Thickness {m}
    0.124,                   !- Conductivity {W/m-K}
    508.45,                  !- Density {kg/m3}
    1048,                    !- Specific Heat {J/kg-K}
    0.9,                     !- Thermal Absorptance
    0.7,                     !- Solar Absorptance
    0.7;                     !- Visible Absorptance

Construction,
    R-11 Wall,               !- Name
    Composite 2x4 Wood Stud R11 #3,  !- Outside Layer
    Composite 2x4 Wood Stud R11 #2,  !- Layer 2
    Composite 2x4 Wood Stud R11 #1;  !- Layer 3

Schedule:Compact,
    HTGSETP_SCH 19,          !- Name
    Temperature,             !- Schedule Type Limits Name
    Through: 12/31,          !- Field 1
    For: AllDays,            !- Field 2
    Until: 24:00, 19;        !- Field 4

Schedule:Compact,
    CLGSETP_SCH 22,          !- Name
    Temperature,             !- Schedule Type Limits Name
    Through: 12/31,          !- Field 1
    For: AllDays,            !- Field 2
    Until: 24:00, 22;        !- Field 4

Schedule:Compact,
    HTGSETP_SCH 18,          !- Name
    Temperature,             !- Schedule Type Limits Name
    Through: 12/31,          !- Field 1
    For: AllDays,            !- Field 2
    Until: 24:00, 19;        !- Field 4

Schedule:Compact,
    CLGSETP_SCH 23,          !- Name
    Temperature,             !- Schedule Type Limits Name
    Through: 12/31,          !- Field 1
    For: AllDays,            !- Field 2
    Until: 24:00, 22;        !- Field 4

Output:Meter,Electricity:Facility,Daily;
Output:Meter,Gas:Facility,Daily;

HVACTemplate:Thermostat,
    House Thermostat,        !- Name
    HTGSETP_SCH,             !- Heating Setpoint Schedule Name
    ,                        !- Constant Heating Setpoint {C}
    CLGSETP_SCH,             !- Cooling Setpoint Schedule Name
    ;                        !- Constant Cooling Setpoint {C}

HVACTemplate:Zone:Unitary,
    House,                   !- Zone Name
    House HVAC System,       !- Template Unitary System Name
    House Thermostat,        !- Template Thermostat Name
    autosize,                !- Supply Air Maximum Flow Rate {m3/s}
    ,                        !- Supply Air Sizing Factor
    Flow/Person,             !- Outdoor Air Method
    0.00944,                 !- Outdoor Air Flow Rate per Person {m3/s}
    ,                        !- Outdoor Air Flow Rate per Zone Floor Area {m3/s-m2}
    ,                        !- Outdoor Air Flow Rate per Zone {m3/s}
    ,                        !- Supply Plenum Name
    ,                        !- Return Plenum Name
    None,                    !- Baseboard Heating Type
    ,                        !- Baseboard Heating Availability Schedule Name
    autosize;                !- Baseboard Heating Capacity {W}

HVACTemplate:System:Unitary,
    House HVAC System,       !- Name
    ALWAYS_ON,               !- System Availability Schedule Name
    House,                   !- Control Zone or Thermostat Location Name
    autosize,                !- Supply Fan Maximum Flow Rate {m3/s}
    ALWAYS_ON,               !- Supply Fan Operating Mode Schedule Name
    0.7,                     !- Supply Fan Total Efficiency
    600,                     !- Supply Fan Delta Pressure {Pa}
    0.9,                     !- Supply Fan Motor Efficiency
    1,                       !- Supply Fan Motor in Air Stream Fraction
    SingleSpeedDX,           !- Cooling Coil Type
    ,                        !- Cooling Coil Availability Schedule Name
    autosize,                !- Cooling Coil Capacity {W}
    autosize,                !- Cooling Coil Rated Sensible Heat Ratio
    2.538,                   !- Cooling Coil Rated COP
    Gas,                     !- Heating Coil Type
    ,                        !- Heating Coil Availability Schedule Name
    autosize,                !- Heating Coil Capacity {W}
    0.8,                     !- Gas Heating Coil Efficiency
    ,                        !- Gas Heating Coil Parasitic Electric Load {W}
    autosize,                !- Maximum Outdoor Air Flow Rate {m3/s}
    autosize,                !- Minimum Outdoor Air Flow Rate {m3/s}
    ,                        !- Minimum Outdoor Air Schedule Name
    NoEconomizer,            !- Economizer Type
    NoLockout,               !- Economizer Lockout
    ,                        !- Economizer Upper Temperature Limit {C}
    ,                        !- Economizer Lower Temperature Limit {C}
    ,                        !- Economizer Upper Enthalpy Limit {J/kg}
    ,                        !- Supply Plenum Name
    ,                        !- Return Plenum Name
    BlowThrough,             !- Supply Fan Placement
    CycleOnAny,              !- Night Cycle Control
    House,                   !- Night Cycle Control Zone Name
    None,                    !- Heat Recovery Type
    0.7,                     !- Sensible Heat Recovery Effectiveness
    0.65,                    !- Latent Heat Recovery Effectiveness
    None,                    !- Dehumidification Control Type
    ,                        !- Dehumidification Control Zone Name
    60,                      !- Dehumidification Setpoint {percent}
    None,                    !- Humidifier Type
    ,                        !- Humidifier Availability Schedule Name
    0.000001,                !- Humidifier Rated Capacity {m3/s}
    2690,                    !- Humidifier Rated Electric Power {W}
    ,                        !- Humidifier Control Zone Name
    30;                      !- Humidifier Setpoint {percent}





Output:Diagnostics,
    DisplayExtraWarnings;    !- Key 1

ScheduleTypeLimits,
    Temperature,             !- Name
    -60,                     !- Lower Limit Value
    200,                     !- Upper Limit Value
    CONTINUOUS;              !- Numeric Type

ScheduleTypeLimits,
    Humidity,                !- Name
    10,                      !- Lower Limit Value
    90,                      !- Upper Limit Value
    CONTINUOUS;              !- Numeric Type

ScheduleTypeLimits,
    Control Type,            !- Name
    0,                       !- Lower Limit Value
    4,                       !- Upper Limit Value
    DISCRETE;                !- Numeric Type

Schedule:Compact,
    INFIL_SCH,               !- Name
    Fraction,                !- Schedule Type Limits Name
    Through: 12/31,          !- Field 1
    For: AllDays,            !- Field 2
    Until: 24:00, 0.0;       !- Field 4

SurfaceConvectionAlgorithm:Inside,Detailed;
SurfaceConvectionAlgorithm:Outside,Detailed;
HeatBalanceAlgorithm,ConductionTransferFunction,200;

ShadowCalculation,
    20,                      !- Calculation Frequency
    15000;                   !- Maximum Figures in Shadow Overlap Calculations





ScheduleTypeLimits,
    Fraction,                !- Name
    0.0,                     !- Lower Limit Value
    1.0,                     !- Upper Limit Value
    Continuous;              !- Numeric Type

ScheduleTypeLimits,
    On/Off,                  !- Name
    0,                       !- Lower Limit Value
    1,                       !- Upper Limit Value
    Discrete;                !- Numeric Type

Schedule:Compact,
    BLDG_LIGHT_SCH,          !- Name
    Fraction,                !- Schedule Type Limits Name
    Through: 12/31,          !- Field 1
    For: Weekdays,           !- Field 2
    Until: 01:00, 0.2,       !- Field 4
    Until: 02:00, 0.15,      !- Field 6
    Until: 05:00, 0.1,       !- Field 8
    Until: 06:00, 0.2,       !- Field 10
    Until: 07:00, 0.4,       !- Field 12
    Until: 08:00, 0.5,       !- Field 14
    Until: 10:00, 0.4,       !- Field 16
    Until: 18:00, 0.25,      !- Field 18
    Until: 19:00, 0.6,       !- Field 20
    Until: 20:00, 0.8,       !- Field 22
    Until: 21:00, 0.9,       !- Field 24
    Until: 22:00, 0.8,       !- Field 26
    Until: 23:00, 0.6,       !- Field 28
    Until: 24:00, 0.3,       !- Field 30
    For: Saturday,           !- Field 31
    Until: 02:00, 0.2,       !- Field 33
    Until: 06:00, 0.1,       !- Field 35
    Until: 08:00, 0.3,       !- Field 37
    Until: 10:00, 0.4,       !- Field 39
    Until: 11:00, 0.3,       !- Field 41
    Until: 18:00, 0.25,      !- Field 43
    Until: 19:00, 0.6,       !- Field 45
    Until: 22:00, 0.7,       !- Field 47
    Until: 23:00, 0.6,       !- Field 49
    Until: 24:00, 0.3,       !- Field 51
    For: SummerDesignDay,    !- Field 52
    Until: 24:00, 1.0,       !- Field 54
    For: WinterDesignDay,    !- Field 55
    Until: 24:00, 0.0,       !- Field 57
    For: Sunday Holidays AllOtherDays,  !- Field 58
    Until: 02:00, 0.3,       !- Field 60
    Until: 06:00, 0.2,       !- Field 62
    Until: 07:00, 0.3,       !- Field 64
    Until: 09:00, 0.4,       !- Field 66
    Until: 13:00, 0.3,       !- Field 68
    Until: 18:00, 0.2,       !- Field 70
    Until: 19:00, 0.5,       !- Field 72
    Until: 20:00, 0.7,       !- Field 74
    Until: 21:00, 0.8,       !- Field 76
    Until: 22:00, 0.6,       !- Field 78
    Until: 23:00, 0.5,       !- Field 80
    Until: 24:00, 0.3;       !- Field 82

Schedule:Compact,
    BLDG_EQUIP_SCH,          !- Name
    Fraction,                !- Schedule Type Limits Name
    Through: 12/31,          !- Field 1
    For: Weekdays,           !- Field 2
    Until: 01:00, 0.3,       !- Field 4
    Until: 02:00, 0.25,      !- Field 6
    Until: 05:00, 0.2,       !- Field 8
    Until: 06:00, 0.3,       !- Field 10
    Until: 07:00, 0.5,       !- Field 12
    Until: 08:00, 0.6,       !- Field 14
    Until: 10:00, 0.5,       !- Field 16
    Until: 18:00, 0.35,      !- Field 18
    Until: 19:00, 0.7,       !- Field 20
    Until: 20:00, 0.9,       !- Field 22
    Until: 21:00, 0.95,      !- Field 24
    Until: 22:00, 0.9,       !- Field 26
    Until: 23:00, 0.7,       !- Field 28
    Until: 24:00, 0.4,       !- Field 30
    For: Saturday,           !- Field 31
    Until: 02:00, 0.3,       !- Field 33
    Until: 06:00, 0.2,       !- Field 35
    Until: 08:00, 0.4,       !- Field 37
    Until: 10:00, 0.5,       !- Field 39
    Until: 11:00, 0.4,       !- Field 41
    Until: 18:00, 0.35,      !- Field 43
    Until: 19:00, 0.7,       !- Field 45
    Until: 22:00, 0.8,       !- Field 47
    Until: 23:00, 0.7,       !- Field 49
    Until: 24:00, 0.4,       !- Field 51
    For: SummerDesignDay,    !- Field 52
    Until: 24:00, 1.0,       !- Field 54
    For: WinterDesignDay,    !- Field 55
    Until: 24:00, 0.0,       !- Field 57
    For: Sunday Holidays AllOtherDays,  !- Field 58
    Until: 02:00, 0.4,       !- Field 60
    Until: 06:00, 0.3,       !- Field 62
    Until: 07:00, 0.4,       !- Field 64
    Until: 09:00, 0.5,       !- Field 66
    Until: 13:00, 0.4,       !- Field 68
    Until: 18:00, 0.3,       !- Field 70
    Until: 19:00, 0.6,       !- Field 72
    Until: 20:00, 0.8,       !- Field 74
    Until: 21:00, 0.9,       !- Field 76
    Until: 22:00, 0.7,       !- Field 78
    Until: 23:00, 0.6,       !- Field 80
    Until: 24:00, 0.4;       !- Field 82

Schedule:Compact,
    BLDG_OCC_SCH,            !- Name
    Fraction,                !- Schedule Type Limits Name
    Through: 12/31,          !- Field 1
    For: Weekdays,           !- Field 2
    Until: 06:00, 0.9,       !- Field 4
    Until: 07:00, 0.7,       !- Field 6
    Until: 09:00, 0.4,       !- Field 8
    Until: 15:00, 0.2,       !- Field 10
    Until: 16:00, 0.3,       !- Field 12
    Until: 19:00, 0.5,       !- Field 14
    Until: 21:00, 0.7,       !- Field 16
    Until: 22:00, 0.8,       !- Field 18
    Until: 24:00, 0.9,       !- Field 20
    For: SummerDesignDay,    !- Field 21
    Until: 24:00, 1.0,       !- Field 23
    For: Saturday,           !- Field 24
    Until: 06:00, 0.9,       !- Field 26
    Until: 07:00, 0.7,       !- Field 28
    Until: 09:00, 0.5,       !- Field 30
    Until: 17:00, 0.3,       !- Field 32
    Until: 18:00, 0.5,       !- Field 34
    Until: 21:00, 0.6,       !- Field 36
    Until: 24:00, 0.7,       !- Field 38
    For: WinterDesignDay,    !- Field 39
    Until: 24:00, 0.0,       !- Field 41
    For: Sunday Holidays AllOtherDays,  !- Field 42
    Until: 08:00, 0.7,       !- Field 44
    Until: 11:00, 0.5,       !- Field 46
    Until: 13:00, 0.3,       !- Field 48
    Until: 16:00, 0.2,       !- Field 50
    Until: 17:00, 0.3,       !- Field 52
    Until: 19:00, 0.4,       !- Field 54
    Until: 21:00, 0.6,       !- Field 56
    Until: 24:00, 0.8;       !- Field 58

Schedule:Compact,
    HTGSETP_SCH,             !- Name
    Temperature,             !- Schedule Type Limits Name
    Through: 12/31,          !- Field 1
    For: AllDays,            !- Field 2
    Until: 24:00, 19;        !- Field 4

Schedule:Compact,
    HTGSETP_SCH_KEYCARD,     !- Name
    Temperature,             !- Schedule Type Limits Name
    Through: 12/31,          !- Field 1
    For: SummerDesignDay WinterDesignDay,  !- Field 2
    Until: 24:00, 20,        !- Field 4
    For AllOtherDays,        !- Field 5
    Until: 07:00, 19,        !- Field 7
    Until: 10:00, 20.0,      !- Field 9
    Until: 16:00, 19.0,      !- Field 11
    Until: 19:00, 20.0,      !- Field 13
    Until: 24:00, 21.0;      !- Field 15

Schedule:Compact,
    CLGSETP_SCH,             !- Name
    Temperature,             !- Schedule Type Limits Name
    Through: 12/31,          !- Field 1
    For: AllDays,            !- Field 2
    Until: 24:00, 21;        !- Field 4

Schedule:Compact,
    CLGSETP_SCH_KEYCARD,     !- Name
    Temperature,             !- Schedule Type Limits Name
    Through: 12/31,          !- Field 1
    For: SummerDesignDay WinterDesignDay,  !- Field 2
    Until: 24:00, 21,        !- Field 4
    For AllOtherDays,        !- Field 5
    Until: 07:00, 21,        !- Field 7
    Until: 10:00, 25.0,      !- Field 9
    Until: 16:00, 26.0,      !- Field 11
    Until: 19:00, 25.0,      !- Field 13
    Until: 24:00, 24.0;      !- Field 15

Schedule:Compact,
    Humidity Setpoint Schedule,  !- Name
    Humidity,                !- Schedule Type Limits Name
    Through: 12/31,          !- Field 1
    For: Weekdays SummerDesignDay,  !- Field 2
    Until: 24:00, 50,        !- Field 4
    For: Saturday WinterDesignDay,  !- Field 5
    Until: 24:00, 50,        !- Field 7
    For: Sunday Holidays AllOtherDays,  !- Field 8
    Until: 24:00, 50;        !- Field 10

Schedule:Compact,
    Dual Zone Control Type Sched,  !- Name
    Control Type,            !- Schedule Type Limits Name
    Through: 12/31,          !- Field 1
    For: AllDays,            !- Field 2
    Until: 24:00, 4;         !- Field 4

Schedule:Compact,
    ALWAYS_ON,               !- Name
    Fraction,                !- Schedule Type Limits Name
    Through: 12/31,          !- Field 1
    For: AllDays,            !- Field 2
    Until: 24:00, 1.0;       !- Field 4

WindowMaterial:Glazing,
    Theoretical Glass [66],  !- Name
    SpectralAverage,         !- Optical Data Type
    ,                        !- Window Glass Spectral Data Set Name
    0.0030,                  !- Thickness {m}
    0.3832,                  !- Solar Transmittance at Normal Incidence
    0.5668,                  !- Front Side Solar Reflectance at Normal Incidence
    0.5668,                  !- Back Side Solar Reflectance at Normal Incidence
    0.4950,                  !- Visible Transmittance at Normal Incidence
    0.4550,                  !- Front Side Visible Reflectance at Normal Incidence
    0.4550,                  !- Back Side Visible Reflectance at Normal Incidence
    0.0000,                  !- Infrared Transmittance at Normal Incidence
    0.9000,                  !- Front Side Infrared Hemispherical Emissivity
    0.9000,                  !- Back Side Infrared Hemispherical Emissivity
    0.0199,                  !- Conductivity {W/m-K}
    1.0000,                  !- Dirt Correction Factor for Solar and Visible Transmittance
    No;                      !- Solar Diffusing

WindowMaterial:Glazing,
    Theoretical Glass [67],  !- Name
    SpectralAverage,         !- Optical Data Type
    ,                        !- Window Glass Spectral Data Set Name
    0.0030,                  !- Thickness {m}
    0.4826,                  !- Solar Transmittance at Normal Incidence
    0.4674,                  !- Front Side Solar Reflectance at Normal Incidence
    0.4674,                  !- Back Side Solar Reflectance at Normal Incidence
    0.6216,                  !- Visible Transmittance at Normal Incidence
    0.3284,                  !- Front Side Visible Reflectance at Normal Incidence
    0.3284,                  !- Back Side Visible Reflectance at Normal Incidence
    0.0000,                  !- Infrared Transmittance at Normal Incidence
    0.9000,                  !- Front Side Infrared Hemispherical Emissivity
    0.9000,                  !- Back Side Infrared Hemispherical Emissivity
    0.0199,                  !- Conductivity {W/m-K}
    1.0000,                  !- Dirt Correction Factor for Solar and Visible Transmittance
    No;                      !- Solar Diffusing

WindowMaterial:Glazing,
    Theoretical Glass [63],  !- Name
    SpectralAverage,         !- Optical Data Type
    ,                        !- Window Glass Spectral Data Set Name
    0.0030,                  !- Thickness {m}
    0.3461,                  !- Solar Transmittance at Normal Incidence
    0.6039,                  !- Front Side Solar Reflectance at Normal Incidence
    0.6039,                  !- Back Side Solar Reflectance at Normal Incidence
    0.4573,                  !- Visible Transmittance at Normal Incidence
    0.4927,                  !- Front Side Visible Reflectance at Normal Incidence
    0.4927,                  !- Back Side Visible Reflectance at Normal Incidence
    0.0000,                  !- Infrared Transmittance at Normal Incidence
    0.9990,                  !- Front Side Infrared Hemispherical Emissivity
    0.9990,                  !- Back Side Infrared Hemispherical Emissivity
    299.3830,                !- Conductivity {W/m-K}
    1.0000,                  !- Dirt Correction Factor for Solar and Visible Transmittance
    No;                      !- Solar Diffusing

Sizing:Parameters,
    1.2,                     !- Sizing Factor
    4;                       !- Timesteps in Averaging Window

Schedule:Compact,
    HVACOperationSchd,       !- Name
    On/Off,                  !- Schedule Type Limits Name
    Through: 12/31,          !- Field 1
    For: AllDays,            !- Field 2
    Until: 24:00, 1.0;       !- Field 4

Version,5.0;

Building,
    1 Story House,           !- Name
    0.0,                     !- North Axis {deg}
    Suburbs,                 !- Terrain
    0.04,                    !- Loads Convergence Tolerance Value
    0.4,                     !- Temperature Convergence Tolerance Value {deltaC}
    FullExterior,            !- Solar Distribution
    25;                      !- Maximum Number of Warmup Days

Timestep,4;

SimulationControl,
    Yes,                     !- Do Zone Sizing Calculation
    Yes,                     !- Do System Sizing Calculation